*INFO DETAIL FILE

******************************************************************************

*DSSAT Cropping System Model Ver. 4.6.0.043 -develop      MAR 14, 2015; 09:55:50
                                                                                
*RUN   1        : NO MUCUNA TOPS, MAIZE     MZCER046 EBPL8501    1              
 MODEL          : MZCER046 - Maize                                              
 EXPERIMENT     : EBPL8501 MZ MAIZE RESPONSE TO MUCUNA GREEN MANURE, BRAZIL     
 DATA PATH      : C:\DSSAT45\maize\                                             
 TREATMENT  1   : NO MUCUNA TOPS, MAIZE     MZCER046                            
  

 CSM     YEAR DOY = 1984 357
 RNMODE = B                                                                    
 PATHEX = C:\DSSAT45\maize\                                                    
 FILEX  = EBPL8501.MZX                                                         
 FILEB  = DSSBatch.v45                                                         
 FILEIO = DSSAT46.INP                                                          
 MODEL  = MZCER046                                                             
 TRTNUM =     1                                                                

 SOILDYN  YEAR DOY = 1984 357
 The soil file has missing or invalid data.                                    
 Default values have been used for these variables:                            
   CEC, STONES, ADCOEF                                                         
 These defaults may or may not be important to your results.                   

 RETC  YEAR DOY = 1984 357
 Soil RETC parameters:                                                         
  LYR DS  SWCN   WCR    Hb Lambd  Alpha     m     n Texture                    
   1   5-99.00 0.073  18.0 0.222  0.003 0.215 1.273 ClayLoam                   
   2  15-99.00 0.073  18.0 0.222  0.003 0.215 1.273 ClayLoam                   
   3  30-99.00 0.090  15.3 0.138  0.003 0.143 1.168 ClayLoam                   
   4  45-99.00 0.095   7.2 0.108  0.008 0.111 1.125 ClayLoam                   
   5  60-99.00 0.097   3.7 0.099  0.013 0.104 1.116 ClayLoam                   
   6  75-99.00 0.100   2.0 0.087  0.020 0.095 1.104 ClayLoam                   
   7  90-99.00 0.101   0.7 0.074  0.035 0.088 1.097 ClayLoam                   
   8 105-99.00 0.103   0.6 0.071  0.036 0.084 1.092 ClayLoam                   
   9 120-99.00 0.105   0.9 0.071  0.032 0.083 1.090 ClayLoam                   

 SOILDYN  YEAR DOY = 1984 357
 Soil ID: EBMZ850001                                                           
 LATOSSOLO VERMELHO AMARELLO                                                   
 CLAYEY, OXIDIC, ISOTHERMIC ANIONIC ACRUSTOX                                   
   SALB SWCON    CN  DMOD  SLPF SMPX                                           
   0.14  0.50  76.0  1.00  1.00 IB001                                          
 Soil layer distribution method: 2                                             
      DS DLAYR    LL   DUL   SAT  Root    BD    OC  CLAY  SILT  SAND           
 LYR  cm    cm  frac  frac  frac  Grow g/cm3     %     %     %     %    pH     
   1   5     5 0.191 0.349 0.389 1.000  0.93  1.81  30.0  30.0  40.0   5.9     
   2  15    10 0.191 0.349 0.389 1.000  0.93  1.81  30.0  30.0  40.0   5.9     
   3  30    15 0.237 0.339 0.367 0.200  1.03  1.45  30.0  30.0  40.0   5.3     
   4  45    15 0.250 0.329 0.371 0.200  1.01  1.20  30.0  30.0  40.0   5.2     
   5  60    15 0.256 0.329 0.385 0.200  0.95  1.03  30.0  30.0  40.0   4.8     
   6  75    15 0.263 0.327 0.389 0.200  0.93  0.81  30.0  30.0  40.0   4.5     
   7  90    15 0.266 0.320 0.394 0.200  0.91  0.76  30.0  30.0  40.0   4.7     
   8 105    15 0.271 0.323 0.394 0.020  0.91  0.69  30.0  30.0  40.0   4.8     
   9 120    15 0.275 0.328 0.394 0.010  0.91  0.63  30.0  30.0  40.0   4.9     

 SOILDYN  YEAR DOY = 1984 357
 Additional soil properties                                                    
                Convert                                                        
    Cation Adsrp  ppm /  SLCF                                                  
   L  Exch  Coef  kg/ha     %                                                  
   1  15.5   0.0   2.15   0.0                                                  
   2  15.5   0.0   1.08   0.0                                                  
   3  15.5   0.0   0.65   0.0                                                  
   4  15.5   0.0   0.66   0.0                                                  
   5  15.5   0.4   0.70   0.0                                                  
   6  15.5   0.8   0.72   0.0                                                  
   7  15.5   1.0   0.73   0.0                                                  
   8  15.5   1.2   0.73   0.0                                                  
   9  15.5   1.6   0.73   0.0                                                  

 IPWTH   YEAR DOY = 1984 357
 C:\DSSAT45\Weather\EBCH8401.WTH                                               
 Found daily weather data headers for:                                         
   SRAD           Col   7 -  11                                                
   TMAX           Col  13 -  17                                                
   TMIN           Col  19 -  23                                                
   RAIN           Col  25 -  29                                                

 CO2VAL  YEAR DOY = 1984 357
  673 CO2 data points read from file.                                          
 C:\DSSAT45\StandardData\CO2046.WDA                                            
