*PEST AND DISEASE DAMAGE OUTPUT FILE


*DSSAT Cropping System Model Ver. 4.6.0.043 -develop      MAR 14, 2015; 09:55:50
                                                                                
*RUN   1        : NO MUCUNA TOPS, MAIZE     MZCER046 EBPL8501    1              
 MODEL          : MZCER046 - Maize                                              
 EXPERIMENT     : EBPL8501 MZ MAIZE RESPONSE TO MUCUNA GREEN MANURE, BRAZIL     
 DATA PATH      : C:\DSSAT45\maize\                                             
 TREATMENT  1   : NO MUCUNA TOPS, MAIZE     MZCER046                            
  
@YEAR DOY   DAS   DAP    DLA   DLA%    DLAI    DLFM    DSTM   DSDM   DSD#   DSHM   DSH#   DRTM    DRLV  DRLF   DASM   DPO%   CLAI    CLFM    CSTM    CSDM   CSD#  CSHM   CSH#   CRTM   CRLV   CRLF    CASM   CPO% 
 1984 357     1     0      0    0.0     0.0       0       0      0    0.0    0.0    0.0    0.0   0.00   0.00   0.00   0.00    0.0       0       0      0      0     0.      0     0.    0.0    0.0     0.0    0.0
 1984 358     2     0      0    0.0     0.0       0       0      0    0.0    0.0    0.0    0.0   0.00   0.00   0.00   0.00    0.0       0       0      0      0     0.      0     0.    0.0    0.0     0.0    0.0
 1984 359     3     0      0    0.0     0.0       0       0      0    0.0    0.0    0.0    0.0   0.00   0.00   0.00   0.00    0.0       0       0      0      0     0.      0     0.    0.0    0.0     0.0    0.0
 1984 360     4     0      0    0.0     0.0       0       0      0    0.0    0.0    0.0    0.0   0.00   0.00   0.00   0.00    0.0       0       0      0      0     0.      0     0.    0.0    0.0     0.0    0.0
