*GROWTH ASPECTS OUTPUT FILE

*DSSAT Cropping System Model Ver. 4.6.0.043 -develop      MAR 14, 2015; 09:55:50
                                                                                
*RUN   1        : NO MUCUNA TOPS, MAIZE     MZCER046 EBPL8501    1              
 MODEL          : MZCER046 - Maize                                              
 EXPERIMENT     : EBPL8501 MZ MAIZE RESPONSE TO MUCUNA GREEN MANURE, BRAZIL     
 DATA PATH      : C:\DSSAT45\maize\                                             
 TREATMENT  1   : NO MUCUNA TOPS, MAIZE     MZCER046                            
  
!                                                                                                                                                                                                                                      Root Dens. (cm/cm3) by soil depth (cm):
!                                                                                                                                                                                                                                      0-5    5-15   15-30   30-45   45-60   60-75   75-90  90-105 105-120
@YEAR DOY   DAS   DAP   L#SD   GSTD   LAID   LWAD   SWAD   GWAD   RWAD   VWAD   CWAD   G#AD   GWGD   HIAD   PWAD   P#AD   WSPD   WSGD   NSTD   EWSD  PST1A  PST2A   KSTD   LN%D   SH%D   HIPD   PWDD   PWTD     SLAD   CHTD   CWID   RDPD    RL1D    RL2D    RL3D    RL4D    RL5D    RL6D    RL7D    RL8D    RL9D   CDAD   LDAD   SDAD   SNW0C   SNW1C  DTTD
