*Soil Inorganic Nitrogen daily output file

*DSSAT Cropping System Model Ver. 4.6.0.043 -develop      MAR 14, 2015; 09:55:50
                                                                                
*RUN   1        : NO MUCUNA TOPS, MAIZE     MZCER046 EBPL8501    1              
 MODEL          : MZCER046 - Maize                                              
 EXPERIMENT     : EBPL8501 MZ MAIZE RESPONSE TO MUCUNA GREEN MANURE, BRAZIL     
 DATA PATH      : C:\DSSAT45\maize\                                             
 TREATMENT  1   : NO MUCUNA TOPS, MAIZE     MZCER046                            
  
!                                                            NO3 (ppm) by soil depth (cm):                                           NH4 (ppm) by soil depth (cm):
!                                                            0-5    5-15   15-30   30-45   45-60   60-75   75-90  90-105 105-120     0-5    5-15   15-30   30-45   45-60   60-75   75-90  90-105 105-120
@YEAR DOY   DAS  NAPC  NI#M    NLCC   NIAD   NITD   NHTD    NI1D    NI2D    NI3D    NI4D    NI5D    NI6D    NI7D    NI8D    NI9D    NH1D    NH2D    NH3D    NH4D    NH5D    NH6D    NH7D    NH8D    NH9D    NMNC    NITC    NDNC    NIMC    AMLC   NNMNC    NUCM
 1984 356     0     0     0     0.0  192.0  190.8    1.1    5.50    5.50    4.70    4.20   12.50   24.60   28.90   28.50   28.60    0.10    0.10    0.10    0.10    0.10    0.10    0.10    0.10    0.10    0.00    0.00    0.00    0.00    0.00    0.00    0.00
 1984 357     1     0     0     0.0  192.2  191.0    1.2    2.83    5.32    5.24    4.49   12.68   24.61   28.91   28.51   28.61    0.12    0.13    0.11    0.10    0.10    0.10    0.10    0.09    0.09    0.21    0.17    0.00    0.00    0.00    0.21    0.00
 1984 358     2     0     0     0.0  192.4  191.1    1.3    3.28    5.16    5.10    4.44   12.65   24.88   28.89   28.50   28.61    0.16    0.18    0.14    0.13    0.11    0.11    0.10    0.09    0.09    0.45    0.25    0.00    0.00    0.00    0.45    0.00
 1984 359     3     0     0     0.0  192.7  191.3    1.4    4.46    5.14    5.02    4.43   12.65   24.84   28.85   28.47   28.59    0.18    0.19    0.15    0.15    0.12    0.11    0.10    0.08    0.08    0.72    0.45    0.00    0.00    0.00    0.72    0.00
 1984 360     4     0     0     0.0  193.0  191.5    1.5    3.91    5.24    5.17    4.55   12.71   24.81   28.82   28.45   28.58    0.20    0.21    0.17    0.16    0.13    0.12    0.10    0.08    0.08    1.02    0.67    0.00    0.00    0.00    1.02    0.00
