*SOIL TEMPERATURE OUTPUT FILE (DAILY)

*DSSAT Cropping System Model Ver. 4.6.0.043 -develop      MAR 14, 2015; 09:55:50
                                                                                
*RUN   1        : NO MUCUNA TOPS, MAIZE     MZCER046 EBPL8501    1              
 MODEL          : MZCER046 - Maize                                              
 EXPERIMENT     : EBPL8501 MZ MAIZE RESPONSE TO MUCUNA GREEN MANURE, BRAZIL     
 DATA PATH      : C:\DSSAT45\maize\                                             
 TREATMENT  1   : NO MUCUNA TOPS, MAIZE     MZCER046                            
  
! TAV  =    21.1
! TAMP =     1.6
!               Temperature (oC) by soil depth (cm):
!               Surface     0-5    5-15   15-30   30-45   45-60   60-75   75-90  90-105 105-120
@YEAR DOY   DAS    TS0D    TS1D    TS2D    TS3D    TS4D    TS5D    TS6D    TS7D    TS8D    TS9D    
 1984 357     1    25.6    25.5    25.1    24.6    24.1    23.6    23.2    22.8    22.6    22.3
 1984 358     2    25.8    25.7    25.4    24.9    24.3    23.9    23.5    23.1    22.8    22.6
 1984 359     3    25.2    25.1    24.8    24.4    23.9    23.5    23.1    22.8    22.5    22.3
 1984 360     4    25.1    25.0    24.7    24.2    23.7    23.3    23.0    22.7    22.4    22.2
