*SOIL WATER DAILY OUTPUT FILE

*DSSAT Cropping System Model Ver. 4.6.0.043 -develop      MAR 14, 2015; 09:55:50
                                                                                
*RUN   1        : NO MUCUNA TOPS, MAIZE     MZCER046 EBPL8501    1              
 MODEL          : MZCER046 - Maize                                              
 EXPERIMENT     : EBPL8501 MZ MAIZE RESPONSE TO MUCUNA GREEN MANURE, BRAZIL     
 DATA PATH      : C:\DSSAT45\maize\                                             
 TREATMENT  1   : NO MUCUNA TOPS, MAIZE     MZCER046                            
  
!                                                                                                 Soil water content (mm3/mm3) by soil depth (cm):
!                                                                                                 0-5    5-15   15-30   30-45   45-60   60-75   75-90  90-105 105-120
@YEAR DOY   DAS  SWTD  SWXD   ROFC   DRNC   PREC  IR#C  IRRC  DTWT    MWTD  TDFD  TDFC   ROFD    SW1D    SW2D    SW3D    SW4D    SW5D    SW6D    SW7D    SW8D    SW9D
 1984 356     0   361    60      0      0      0     0     0     0    0.00   0.0   0.0   0.00   0.311   0.311   0.317   0.327   0.317   0.307   0.281   0.271   0.275
 1984 357     1   377    75      2      0     20     0     0    60    0.00   0.0   0.0   1.97   0.359   0.364   0.351   0.339   0.327   0.306   0.280   0.270   0.274
 1984 358     2   371    69      2      0     20     0     0   120    0.00   0.0   0.0   0.00   0.323   0.345   0.339   0.330   0.326   0.320   0.278   0.269   0.273
 1984 359     3   367    66      2      0     20     0     0   120    0.00   0.0   0.0   0.00   0.305   0.337   0.335   0.327   0.324   0.318   0.277   0.268   0.272
 1984 360     4   373    72      2      0     31     0     0   120    0.00   0.0   0.0   0.28   0.348   0.360   0.345   0.330   0.326   0.316   0.276   0.267   0.271
