*WARNING DETAIL FILE

******************************************************************************

*DSSAT Cropping System Model Ver. 4.6.0.043 -develop      MAR 14, 2015; 09:55:48
                                                                                
*RUN   1        : NO MUCUNA TOPS, MAIZE              EBPL8501    1              
                                                                                
 EXPERIMENT     : EBPL8501 MZ MAIZE RESPONSE TO MUCUNA GREEN MANURE, BRAZIL     
 DATA PATH      : C:\DSSAT45\maize\                                             
 TREATMENT  1   : NO MUCUNA TOPS, MAIZE                                         
  

 IPEXP   YEAR DOY =    0   0
 Photosynthesis method (PHOTO in FILEX) has been changed                       
 from "L" to "C" for compatibility with crop model, MZCER.                     

 IPRES   YEAR DOY =    0   0
 Residue application   1                                                       
 Neither residue incorporation percentage nor depth specified. Applied residues
 will remain on surface until a tillage event is specified.                    

 IPSOIL  YEAR DOY =    0   0
 Saturated hydraulic conductivity equal to zero for one or more soil layers.   
 Data will be treated as missing.                                              

 RPLACE  YEAR DOY = 1984 357
 Default N concentration used for one or more residue applications             
